.MODEL BC858 PNP (IS=88.0F NF=1 BF=195 VAF=98.5 IKF=.1
+ ISE=4.93P NE=2 BR=4 NR=1 VAR=20 IKR=.15 RE=1.06 RB=4.26
+ RC=.426 XTB=1.5 CJE=28.3P CJC=8.22P TF=1.06N TR=61.6N)
*   30 Volt  .1 Amp  150 MHz  SiPNP  Transistor  04-13-1991
